
---------- Begin Simulation Statistics ----------
sim_seconds                                  0.000383                       # Number of seconds simulated
sim_ticks                                   383438000                       # Number of ticks simulated
final_tick                                  383438000                       # Number of ticks from beginning of simulation (restored from checkpoints and never reset)
sim_freq                                 1000000000000                       # Frequency of simulated ticks
host_inst_rate                                 133579                       # Simulator instruction rate (inst/s)
host_op_rate                                   133541                       # Simulator op (including micro ops) rate (op/s)
host_tick_rate                             9700866955                       # Simulator tick rate (ticks/s)
host_mem_usage                                 639584                       # Number of bytes of host memory used
host_seconds                                     0.04                       # Real time elapsed on the host
sim_insts                                        5277                       # Number of instructions simulated
sim_ops                                          5277                       # Number of ops (including micro ops) simulated
system.voltage_domain.voltage                       1                       # Voltage in Volts
system.clk_domain.clock                          1000                       # Clock period in ticks
system.mem_ctrls.pwrStateResidencyTicks::UNDEFINED    383438000                       # Cumulative time (in ticks) in various power states
system.mem_ctrls.bytes_read::.cpu.inst          21156                       # Number of bytes read from this memory
system.mem_ctrls.bytes_read::.cpu.data           6752                       # Number of bytes read from this memory
system.mem_ctrls.bytes_read::total              27908                       # Number of bytes read from this memory
system.mem_ctrls.bytes_inst_read::.cpu.inst        21156                       # Number of instructions bytes read from this memory
system.mem_ctrls.bytes_inst_read::total         21156                       # Number of instructions bytes read from this memory
system.mem_ctrls.bytes_written::.cpu.data         6741                       # Number of bytes written to this memory
system.mem_ctrls.bytes_written::total            6741                       # Number of bytes written to this memory
system.mem_ctrls.num_reads::.cpu.inst            5289                       # Number of read requests responded to by this memory
system.mem_ctrls.num_reads::.cpu.data             960                       # Number of read requests responded to by this memory
system.mem_ctrls.num_reads::total                6249                       # Number of read requests responded to by this memory
system.mem_ctrls.num_writes::.cpu.data            885                       # Number of write requests responded to by this memory
system.mem_ctrls.num_writes::total                885                       # Number of write requests responded to by this memory
system.mem_ctrls.bw_read::.cpu.inst          55174500                       # Total read bandwidth from this memory (bytes/s)
system.mem_ctrls.bw_read::.cpu.data          17609105                       # Total read bandwidth from this memory (bytes/s)
system.mem_ctrls.bw_read::total              72783605                       # Total read bandwidth from this memory (bytes/s)
system.mem_ctrls.bw_inst_read::.cpu.inst     55174500                       # Instruction read bandwidth from this memory (bytes/s)
system.mem_ctrls.bw_inst_read::total         55174500                       # Instruction read bandwidth from this memory (bytes/s)
system.mem_ctrls.bw_write::.cpu.data         17580417                       # Write bandwidth from this memory (bytes/s)
system.mem_ctrls.bw_write::total             17580417                       # Write bandwidth from this memory (bytes/s)
system.mem_ctrls.bw_total::.cpu.inst         55174500                       # Total bandwidth to/from this memory (bytes/s)
system.mem_ctrls.bw_total::.cpu.data         35189522                       # Total bandwidth to/from this memory (bytes/s)
system.mem_ctrls.bw_total::total             90364022                       # Total bandwidth to/from this memory (bytes/s)
system.mem_ctrls.avgPriority_.cpu.inst::samples      5290.00                       # Average QoS priority value for accepted requests
system.mem_ctrls.avgPriority_.cpu.data::samples       966.00                       # Average QoS priority value for accepted requests
system.mem_ctrls.priorityMinLatency      0.000000018750                       # per QoS priority minimum request to response latency (s)
system.mem_ctrls.priorityMaxLatency      0.000229857750                       # per QoS priority maximum request to response latency (s)
system.mem_ctrls.numReadWriteTurnArounds            6                       # Number of turnarounds from READ to WRITE
system.mem_ctrls.numWriteReadTurnArounds            6                       # Number of turnarounds from WRITE to READ
system.mem_ctrls.numStayReadState               13229                       # Number of times bus staying in READ state
system.mem_ctrls.numStayWriteState                 90                       # Number of times bus staying in WRITE state
system.mem_ctrls.readReqs                        6250                       # Number of read requests accepted
system.mem_ctrls.writeReqs                        885                       # Number of write requests accepted
system.mem_ctrls.readBursts                      6250                       # Number of DRAM read bursts, including those serviced by the write queue
system.mem_ctrls.writeBursts                      885                       # Number of DRAM write bursts, including those merged in the write queue
system.mem_ctrls.bytesReadDRAM                 392192                       # Total number of bytes read from DRAM
system.mem_ctrls.bytesReadWrQ                    7808                       # Total number of bytes read from write queue
system.mem_ctrls.bytesWritten                    6144                       # Total number of bytes written to DRAM
system.mem_ctrls.bytesReadSys                   27912                       # Total read bytes from the system interface side
system.mem_ctrls.bytesWrittenSys                 6741                       # Total written bytes from the system interface side
system.mem_ctrls.servicedByWrQ                    122                       # Number of DRAM read bursts serviced by the write queue
system.mem_ctrls.mergedWrBursts                   757                       # Number of DRAM write bursts merged with an existing one
system.mem_ctrls.neitherReadNorWriteReqs            0                       # Number of requests that are neither read nor write
system.mem_ctrls.perBankRdBursts::0               838                       # Per bank write bursts
system.mem_ctrls.perBankRdBursts::1              1228                       # Per bank write bursts
system.mem_ctrls.perBankRdBursts::2               998                       # Per bank write bursts
system.mem_ctrls.perBankRdBursts::3               466                       # Per bank write bursts
system.mem_ctrls.perBankRdBursts::4               523                       # Per bank write bursts
system.mem_ctrls.perBankRdBursts::5               384                       # Per bank write bursts
system.mem_ctrls.perBankRdBursts::6               667                       # Per bank write bursts
system.mem_ctrls.perBankRdBursts::7               175                       # Per bank write bursts
system.mem_ctrls.perBankRdBursts::8                18                       # Per bank write bursts
system.mem_ctrls.perBankRdBursts::9               468                       # Per bank write bursts
system.mem_ctrls.perBankRdBursts::10                0                       # Per bank write bursts
system.mem_ctrls.perBankRdBursts::11                0                       # Per bank write bursts
system.mem_ctrls.perBankRdBursts::12              353                       # Per bank write bursts
system.mem_ctrls.perBankRdBursts::13                6                       # Per bank write bursts
system.mem_ctrls.perBankRdBursts::14                4                       # Per bank write bursts
system.mem_ctrls.perBankRdBursts::15                0                       # Per bank write bursts
system.mem_ctrls.perBankWrBursts::0                 0                       # Per bank write bursts
system.mem_ctrls.perBankWrBursts::1                 0                       # Per bank write bursts
system.mem_ctrls.perBankWrBursts::2                 0                       # Per bank write bursts
system.mem_ctrls.perBankWrBursts::3                 0                       # Per bank write bursts
system.mem_ctrls.perBankWrBursts::4                 2                       # Per bank write bursts
system.mem_ctrls.perBankWrBursts::5                30                       # Per bank write bursts
system.mem_ctrls.perBankWrBursts::6                36                       # Per bank write bursts
system.mem_ctrls.perBankWrBursts::7                 0                       # Per bank write bursts
system.mem_ctrls.perBankWrBursts::8                 0                       # Per bank write bursts
system.mem_ctrls.perBankWrBursts::9                 0                       # Per bank write bursts
system.mem_ctrls.perBankWrBursts::10                0                       # Per bank write bursts
system.mem_ctrls.perBankWrBursts::11                0                       # Per bank write bursts
system.mem_ctrls.perBankWrBursts::12               18                       # Per bank write bursts
system.mem_ctrls.perBankWrBursts::13               10                       # Per bank write bursts
system.mem_ctrls.perBankWrBursts::14                0                       # Per bank write bursts
system.mem_ctrls.perBankWrBursts::15                0                       # Per bank write bursts
system.mem_ctrls.numRdRetry                         0                       # Number of times read queue was full causing retry
system.mem_ctrls.numWrRetry                         0                       # Number of times write queue was full causing retry
system.mem_ctrls.totGap                     383361000                       # Total gap between requests
system.mem_ctrls.readPktSize::0                    54                       # Read request sizes (log2)
system.mem_ctrls.readPktSize::1                     1                       # Read request sizes (log2)
system.mem_ctrls.readPktSize::2                  5426                       # Read request sizes (log2)
system.mem_ctrls.readPktSize::3                   769                       # Read request sizes (log2)
system.mem_ctrls.readPktSize::4                     0                       # Read request sizes (log2)
system.mem_ctrls.readPktSize::5                     0                       # Read request sizes (log2)
system.mem_ctrls.readPktSize::6                     0                       # Read request sizes (log2)
system.mem_ctrls.writePktSize::0                   17                       # Write request sizes (log2)
system.mem_ctrls.writePktSize::1                    0                       # Write request sizes (log2)
system.mem_ctrls.writePktSize::2                   55                       # Write request sizes (log2)
system.mem_ctrls.writePktSize::3                  813                       # Write request sizes (log2)
system.mem_ctrls.writePktSize::4                    0                       # Write request sizes (log2)
system.mem_ctrls.writePktSize::5                    0                       # Write request sizes (log2)
system.mem_ctrls.writePktSize::6                    0                       # Write request sizes (log2)
system.mem_ctrls.rdQLenPdf::0                    6128                       # What read queue length does an incoming req see
system.mem_ctrls.rdQLenPdf::1                       0                       # What read queue length does an incoming req see
system.mem_ctrls.rdQLenPdf::2                       0                       # What read queue length does an incoming req see
system.mem_ctrls.rdQLenPdf::3                       0                       # What read queue length does an incoming req see
system.mem_ctrls.rdQLenPdf::4                       0                       # What read queue length does an incoming req see
system.mem_ctrls.rdQLenPdf::5                       0                       # What read queue length does an incoming req see
system.mem_ctrls.rdQLenPdf::6                       0                       # What read queue length does an incoming req see
system.mem_ctrls.rdQLenPdf::7                       0                       # What read queue length does an incoming req see
system.mem_ctrls.rdQLenPdf::8                       0                       # What read queue length does an incoming req see
system.mem_ctrls.rdQLenPdf::9                       0                       # What read queue length does an incoming req see
system.mem_ctrls.rdQLenPdf::10                      0                       # What read queue length does an incoming req see
system.mem_ctrls.rdQLenPdf::11                      0                       # What read queue length does an incoming req see
system.mem_ctrls.rdQLenPdf::12                      0                       # What read queue length does an incoming req see
system.mem_ctrls.rdQLenPdf::13                      0                       # What read queue length does an incoming req see
system.mem_ctrls.rdQLenPdf::14                      0                       # What read queue length does an incoming req see
system.mem_ctrls.rdQLenPdf::15                      0                       # What read queue length does an incoming req see
system.mem_ctrls.rdQLenPdf::16                      0                       # What read queue length does an incoming req see
system.mem_ctrls.rdQLenPdf::17                      0                       # What read queue length does an incoming req see
system.mem_ctrls.rdQLenPdf::18                      0                       # What read queue length does an incoming req see
system.mem_ctrls.rdQLenPdf::19                      0                       # What read queue length does an incoming req see
system.mem_ctrls.rdQLenPdf::20                      0                       # What read queue length does an incoming req see
system.mem_ctrls.rdQLenPdf::21                      0                       # What read queue length does an incoming req see
system.mem_ctrls.rdQLenPdf::22                      0                       # What read queue length does an incoming req see
system.mem_ctrls.rdQLenPdf::23                      0                       # What read queue length does an incoming req see
system.mem_ctrls.rdQLenPdf::24                      0                       # What read queue length does an incoming req see
system.mem_ctrls.rdQLenPdf::25                      0                       # What read queue length does an incoming req see
system.mem_ctrls.rdQLenPdf::26                      0                       # What read queue length does an incoming req see
system.mem_ctrls.rdQLenPdf::27                      0                       # What read queue length does an incoming req see
system.mem_ctrls.rdQLenPdf::28                      0                       # What read queue length does an incoming req see
system.mem_ctrls.rdQLenPdf::29                      0                       # What read queue length does an incoming req see
system.mem_ctrls.rdQLenPdf::30                      0                       # What read queue length does an incoming req see
system.mem_ctrls.rdQLenPdf::31                      0                       # What read queue length does an incoming req see
system.mem_ctrls.wrQLenPdf::0                       1                       # What write queue length does an incoming req see
system.mem_ctrls.wrQLenPdf::1                       1                       # What write queue length does an incoming req see
system.mem_ctrls.wrQLenPdf::2                       1                       # What write queue length does an incoming req see
system.mem_ctrls.wrQLenPdf::3                       1                       # What write queue length does an incoming req see
system.mem_ctrls.wrQLenPdf::4                       1                       # What write queue length does an incoming req see
system.mem_ctrls.wrQLenPdf::5                       1                       # What write queue length does an incoming req see
system.mem_ctrls.wrQLenPdf::6                       1                       # What write queue length does an incoming req see
system.mem_ctrls.wrQLenPdf::7                       1                       # What write queue length does an incoming req see
system.mem_ctrls.wrQLenPdf::8                       1                       # What write queue length does an incoming req see
system.mem_ctrls.wrQLenPdf::9                       1                       # What write queue length does an incoming req see
system.mem_ctrls.wrQLenPdf::10                      1                       # What write queue length does an incoming req see
system.mem_ctrls.wrQLenPdf::11                      1                       # What write queue length does an incoming req see
system.mem_ctrls.wrQLenPdf::12                      1                       # What write queue length does an incoming req see
system.mem_ctrls.wrQLenPdf::13                      1                       # What write queue length does an incoming req see
system.mem_ctrls.wrQLenPdf::14                      1                       # What write queue length does an incoming req see
system.mem_ctrls.wrQLenPdf::15                      1                       # What write queue length does an incoming req see
system.mem_ctrls.wrQLenPdf::16                      1                       # What write queue length does an incoming req see
system.mem_ctrls.wrQLenPdf::17                      7                       # What write queue length does an incoming req see
system.mem_ctrls.wrQLenPdf::18                      7                       # What write queue length does an incoming req see
system.mem_ctrls.wrQLenPdf::19                      7                       # What write queue length does an incoming req see
system.mem_ctrls.wrQLenPdf::20                      7                       # What write queue length does an incoming req see
system.mem_ctrls.wrQLenPdf::21                      7                       # What write queue length does an incoming req see
system.mem_ctrls.wrQLenPdf::22                      7                       # What write queue length does an incoming req see
system.mem_ctrls.wrQLenPdf::23                      7                       # What write queue length does an incoming req see
system.mem_ctrls.wrQLenPdf::24                      7                       # What write queue length does an incoming req see
system.mem_ctrls.wrQLenPdf::25                      7                       # What write queue length does an incoming req see
system.mem_ctrls.wrQLenPdf::26                      7                       # What write queue length does an incoming req see
system.mem_ctrls.wrQLenPdf::27                      7                       # What write queue length does an incoming req see
system.mem_ctrls.wrQLenPdf::28                      7                       # What write queue length does an incoming req see
system.mem_ctrls.wrQLenPdf::29                      7                       # What write queue length does an incoming req see
system.mem_ctrls.wrQLenPdf::30                      7                       # What write queue length does an incoming req see
system.mem_ctrls.wrQLenPdf::31                      7                       # What write queue length does an incoming req see
system.mem_ctrls.wrQLenPdf::32                      6                       # What write queue length does an incoming req see
system.mem_ctrls.wrQLenPdf::33                      0                       # What write queue length does an incoming req see
system.mem_ctrls.wrQLenPdf::34                      0                       # What write queue length does an incoming req see
system.mem_ctrls.wrQLenPdf::35                      0                       # What write queue length does an incoming req see
system.mem_ctrls.wrQLenPdf::36                      0                       # What write queue length does an incoming req see
system.mem_ctrls.wrQLenPdf::37                      0                       # What write queue length does an incoming req see
system.mem_ctrls.wrQLenPdf::38                      0                       # What write queue length does an incoming req see
system.mem_ctrls.wrQLenPdf::39                      0                       # What write queue length does an incoming req see
system.mem_ctrls.wrQLenPdf::40                      0                       # What write queue length does an incoming req see
system.mem_ctrls.wrQLenPdf::41                      0                       # What write queue length does an incoming req see
system.mem_ctrls.wrQLenPdf::42                      0                       # What write queue length does an incoming req see
system.mem_ctrls.wrQLenPdf::43                      0                       # What write queue length does an incoming req see
system.mem_ctrls.wrQLenPdf::44                      0                       # What write queue length does an incoming req see
system.mem_ctrls.wrQLenPdf::45                      0                       # What write queue length does an incoming req see
system.mem_ctrls.wrQLenPdf::46                      0                       # What write queue length does an incoming req see
system.mem_ctrls.wrQLenPdf::47                      0                       # What write queue length does an incoming req see
system.mem_ctrls.wrQLenPdf::48                      0                       # What write queue length does an incoming req see
system.mem_ctrls.wrQLenPdf::49                      0                       # What write queue length does an incoming req see
system.mem_ctrls.wrQLenPdf::50                      0                       # What write queue length does an incoming req see
system.mem_ctrls.wrQLenPdf::51                      0                       # What write queue length does an incoming req see
system.mem_ctrls.wrQLenPdf::52                      0                       # What write queue length does an incoming req see
system.mem_ctrls.wrQLenPdf::53                      0                       # What write queue length does an incoming req see
system.mem_ctrls.wrQLenPdf::54                      0                       # What write queue length does an incoming req see
system.mem_ctrls.wrQLenPdf::55                      0                       # What write queue length does an incoming req see
system.mem_ctrls.wrQLenPdf::56                      0                       # What write queue length does an incoming req see
system.mem_ctrls.wrQLenPdf::57                      0                       # What write queue length does an incoming req see
system.mem_ctrls.wrQLenPdf::58                      0                       # What write queue length does an incoming req see
system.mem_ctrls.wrQLenPdf::59                      0                       # What write queue length does an incoming req see
system.mem_ctrls.wrQLenPdf::60                      0                       # What write queue length does an incoming req see
system.mem_ctrls.wrQLenPdf::61                      0                       # What write queue length does an incoming req see
system.mem_ctrls.wrQLenPdf::62                      0                       # What write queue length does an incoming req see
system.mem_ctrls.wrQLenPdf::63                      0                       # What write queue length does an incoming req see
system.mem_ctrls.bytesPerActivate::samples          608                       # Bytes accessed per row activation
system.mem_ctrls.bytesPerActivate::mean    653.263158                       # Bytes accessed per row activation
system.mem_ctrls.bytesPerActivate::gmean   464.005627                       # Bytes accessed per row activation
system.mem_ctrls.bytesPerActivate::stdev   387.863165                       # Bytes accessed per row activation
system.mem_ctrls.bytesPerActivate::0-127           80     13.16%     13.16% # Bytes accessed per row activation
system.mem_ctrls.bytesPerActivate::128-255           61     10.03%     23.19% # Bytes accessed per row activation
system.mem_ctrls.bytesPerActivate::256-383           46      7.57%     30.76% # Bytes accessed per row activation
system.mem_ctrls.bytesPerActivate::384-511           44      7.24%     37.99% # Bytes accessed per row activation
system.mem_ctrls.bytesPerActivate::512-639           34      5.59%     43.59% # Bytes accessed per row activation
system.mem_ctrls.bytesPerActivate::640-767           22      3.62%     47.20% # Bytes accessed per row activation
system.mem_ctrls.bytesPerActivate::768-895           31      5.10%     52.30% # Bytes accessed per row activation
system.mem_ctrls.bytesPerActivate::896-1023           32      5.26%     57.57% # Bytes accessed per row activation
system.mem_ctrls.bytesPerActivate::1024-1151          258     42.43%    100.00% # Bytes accessed per row activation
system.mem_ctrls.bytesPerActivate::total          608                       # Bytes accessed per row activation
system.mem_ctrls.rdPerTurnAround::samples            6                       # Reads before turning the bus around for writes
system.mem_ctrls.rdPerTurnAround::mean     633.500000                       # Reads before turning the bus around for writes
system.mem_ctrls.rdPerTurnAround::gmean    576.792738                       # Reads before turning the bus around for writes
system.mem_ctrls.rdPerTurnAround::stdev    303.535006                       # Reads before turning the bus around for writes
system.mem_ctrls.rdPerTurnAround::320-383            2     33.33%     33.33% # Reads before turning the bus around for writes
system.mem_ctrls.rdPerTurnAround::576-639            2     33.33%     66.67% # Reads before turning the bus around for writes
system.mem_ctrls.rdPerTurnAround::704-767            1     16.67%     83.33% # Reads before turning the bus around for writes
system.mem_ctrls.rdPerTurnAround::1152-1215            1     16.67%    100.00% # Reads before turning the bus around for writes
system.mem_ctrls.rdPerTurnAround::total             6                       # Reads before turning the bus around for writes
system.mem_ctrls.wrPerTurnAround::samples            6                       # Writes before turning the bus around for reads
system.mem_ctrls.wrPerTurnAround::mean             16                       # Writes before turning the bus around for reads
system.mem_ctrls.wrPerTurnAround::gmean     16.000000                       # Writes before turning the bus around for reads
system.mem_ctrls.wrPerTurnAround::16                6    100.00%    100.00% # Writes before turning the bus around for reads
system.mem_ctrls.wrPerTurnAround::total             6                       # Writes before turning the bus around for reads
system.mem_ctrls.masterReadBytes::.cpu.inst        21160                       # Per-master bytes read from memory
system.mem_ctrls.masterReadBytes::.cpu.data         5996                       # Per-master bytes read from memory
system.mem_ctrls.masterWriteBytes::.cpu.data          720                       # Per-master bytes write to memory
system.mem_ctrls.masterReadRate::.cpu.inst 55184932.114187955856                       # Per-master bytes read from memory rate (Bytes/sec)
system.mem_ctrls.masterReadRate::.cpu.data 15637469.421392766759                       # Per-master bytes read from memory rate (Bytes/sec)
system.mem_ctrls.masterWriteRate::.cpu.data 1877748.162675582571                       # Per-master bytes write to memory rate (Bytes/sec)
system.mem_ctrls.masterReadAccesses::.cpu.inst         5290                       # Per-master read serviced memory accesses
system.mem_ctrls.masterReadAccesses::.cpu.data          960                       # Per-master read serviced memory accesses
system.mem_ctrls.masterWriteAccesses::.cpu.data          885                       # Per-master write serviced memory accesses
system.mem_ctrls.masterReadTotalLat::.cpu.inst    149062500                       # Per-master read total memory access latency
system.mem_ctrls.masterReadTotalLat::.cpu.data     27864000                       # Per-master read total memory access latency
system.mem_ctrls.masterWriteTotalLat::.cpu.data   4930258000                       # Per-master write total memory access latency
system.mem_ctrls.masterReadAvgLat::.cpu.inst     28178.17                       # Per-master read average memory access latency
system.mem_ctrls.masterReadAvgLat::.cpu.data     29025.00                       # Per-master read average memory access latency
system.mem_ctrls.masterWriteAvgLat::.cpu.data   5570912.99                       # Per-master write average memory access latency
system.mem_ctrls.totQLat                     62026500                       # Total ticks spent queuing
system.mem_ctrls.totMemAccLat               176926500                       # Total ticks spent from burst creation until serviced by the DRAM
system.mem_ctrls.totBusLat                   30640000                       # Total ticks spent in databus transfers
system.mem_ctrls.avgQLat                     10121.82                       # Average queueing delay per DRAM burst
system.mem_ctrls.avgBusLat                    5000.00                       # Average bus latency per DRAM burst
system.mem_ctrls.avgMemAccLat                28871.82                       # Average memory access latency per DRAM burst
system.mem_ctrls.avgRdBW                      1022.83                       # Average DRAM read bandwidth in MiByte/s
system.mem_ctrls.avgWrBW                        16.02                       # Average achieved write bandwidth in MiByte/s
system.mem_ctrls.avgRdBWSys                     72.79                       # Average system read bandwidth in MiByte/s
system.mem_ctrls.avgWrBWSys                     17.58                       # Average system write bandwidth in MiByte/s
system.mem_ctrls.peakBW                      12800.00                       # Theoretical peak bandwidth in MiByte/s
system.mem_ctrls.busUtil                         8.12                       # Data bus utilization in percentage
system.mem_ctrls.busUtilRead                     7.99                       # Data bus utilization in percentage for reads
system.mem_ctrls.busUtilWrite                    0.13                       # Data bus utilization in percentage for writes
system.mem_ctrls.avgRdQLen                       1.00                       # Average read queue length when enqueuing
system.mem_ctrls.avgWrQLen                      24.63                       # Average write queue length when enqueuing
system.mem_ctrls.readRowHits                     5527                       # Number of row buffer hits during reads
system.mem_ctrls.writeRowHits                      86                       # Number of row buffer hits during writes
system.mem_ctrls.readRowHitRate                 90.19                       # Row buffer hit rate for reads
system.mem_ctrls.writeRowHitRate                67.19                       # Row buffer hit rate for writes
system.mem_ctrls.avgGap                      53729.64                       # Average gap between requests
system.mem_ctrls.pageHitRate                    89.72                       # Row buffer hit rate, read and write combined
system.mem_ctrls_0.actEnergy                  3677100                       # Energy for activate commands per rank (pJ)
system.mem_ctrls_0.preEnergy                  1943040                       # Energy for precharge commands per rank (pJ)
system.mem_ctrls_0.readEnergy                37684920                       # Energy for read commands per rank (pJ)
system.mem_ctrls_0.writeEnergy                 354960                       # Energy for write commands per rank (pJ)
system.mem_ctrls_0.refreshEnergy         30117360.000000                       # Energy for refresh commands per rank (pJ)
system.mem_ctrls_0.actBackEnergy             71843370                       # Energy for active background per rank (pJ)
system.mem_ctrls_0.preBackEnergy               902880                       # Energy for precharge background per rank (pJ)
system.mem_ctrls_0.actPowerDownEnergy       101218890                       # Energy for active power-down per rank (pJ)
system.mem_ctrls_0.prePowerDownEnergy          600960                       # Energy for precharge power-down per rank (pJ)
system.mem_ctrls_0.selfRefreshEnergy                0                       # Energy for self refresh per rank (pJ)
system.mem_ctrls_0.totalEnergy              248343480                       # Total energy per rank (pJ)
system.mem_ctrls_0.averagePower            647.675713                       # Core power per rank (mW)
system.mem_ctrls_0.totalIdleTime            223437750                       # Total Idle time Per DRAM Rank
system.mem_ctrls_0.memoryStateTime::IDLE       408000                       # Time in different power states
system.mem_ctrls_0.memoryStateTime::REF      12740000                       # Time in different power states
system.mem_ctrls_0.memoryStateTime::SREF            0                       # Time in different power states
system.mem_ctrls_0.memoryStateTime::PRE_PDN      1561500                       # Time in different power states
system.mem_ctrls_0.memoryStateTime::ACT     146852250                       # Time in different power states
system.mem_ctrls_0.memoryStateTime::ACT_PDN    221876250                       # Time in different power states
system.mem_ctrls_1.actEnergy                   685440                       # Energy for activate commands per rank (pJ)
system.mem_ctrls_1.preEnergy                   360525                       # Energy for precharge commands per rank (pJ)
system.mem_ctrls_1.readEnergy                 6061860                       # Energy for read commands per rank (pJ)
system.mem_ctrls_1.writeEnergy                 146160                       # Energy for write commands per rank (pJ)
system.mem_ctrls_1.refreshEnergy         27658800.000000                       # Energy for refresh commands per rank (pJ)
system.mem_ctrls_1.actBackEnergy             18457740                       # Energy for active background per rank (pJ)
system.mem_ctrls_1.preBackEnergy              2106720                       # Energy for precharge background per rank (pJ)
system.mem_ctrls_1.actPowerDownEnergy       106440090                       # Energy for active power-down per rank (pJ)
system.mem_ctrls_1.prePowerDownEnergy        29121600                       # Energy for precharge power-down per rank (pJ)
system.mem_ctrls_1.selfRefreshEnergy          9533100                       # Energy for self refresh per rank (pJ)
system.mem_ctrls_1.totalEnergy              200572035                       # Total energy per rank (pJ)
system.mem_ctrls_1.averagePower            523.088570                       # Core power per rank (mW)
system.mem_ctrls_1.totalIdleTime            335935500                       # Total Idle time Per DRAM Rank
system.mem_ctrls_1.memoryStateTime::IDLE      4135000                       # Time in different power states
system.mem_ctrls_1.memoryStateTime::REF      11700000                       # Time in different power states
system.mem_ctrls_1.memoryStateTime::SREF     28217000                       # Time in different power states
system.mem_ctrls_1.memoryStateTime::PRE_PDN     75846750                       # Time in different power states
system.mem_ctrls_1.memoryStateTime::ACT      30129250                       # Time in different power states
system.mem_ctrls_1.memoryStateTime::ACT_PDN    233410000                       # Time in different power states
system.pwrStateResidencyTicks::UNDEFINED    383438000                       # Cumulative time (in ticks) in various power states
system.cpu_voltage_domain.voltage                   1                       # Voltage in Volts
system.cpu_clk_domain.clock                       500                       # Clock period in ticks
system.cpu.dtb.fetch_hits                           0                       # ITB hits
system.cpu.dtb.fetch_misses                         0                       # ITB misses
system.cpu.dtb.fetch_acv                            0                       # ITB acv
system.cpu.dtb.fetch_accesses                       0                       # ITB accesses
system.cpu.dtb.read_hits                          960                       # DTB read hits
system.cpu.dtb.read_misses                          7                       # DTB read misses
system.cpu.dtb.read_acv                             0                       # DTB read access violations
system.cpu.dtb.read_accesses                      967                       # DTB read accesses
system.cpu.dtb.write_hits                         885                       # DTB write hits
system.cpu.dtb.write_misses                         5                       # DTB write misses
system.cpu.dtb.write_acv                            0                       # DTB write access violations
system.cpu.dtb.write_accesses                     890                       # DTB write accesses
system.cpu.dtb.data_hits                         1845                       # DTB hits
system.cpu.dtb.data_misses                         12                       # DTB misses
system.cpu.dtb.data_acv                             0                       # DTB access violations
system.cpu.dtb.data_accesses                     1857                       # DTB accesses
system.cpu.itb.fetch_hits                        5290                       # ITB hits
system.cpu.itb.fetch_misses                        18                       # ITB misses
system.cpu.itb.fetch_acv                            0                       # ITB acv
system.cpu.itb.fetch_accesses                    5308                       # ITB accesses
system.cpu.itb.read_hits                            0                       # DTB read hits
system.cpu.itb.read_misses                          0                       # DTB read misses
system.cpu.itb.read_acv                             0                       # DTB read access violations
system.cpu.itb.read_accesses                        0                       # DTB read accesses
system.cpu.itb.write_hits                           0                       # DTB write hits
system.cpu.itb.write_misses                         0                       # DTB write misses
system.cpu.itb.write_acv                            0                       # DTB write access violations
system.cpu.itb.write_accesses                       0                       # DTB write accesses
system.cpu.itb.data_hits                            0                       # DTB hits
system.cpu.itb.data_misses                          0                       # DTB misses
system.cpu.itb.data_acv                             0                       # DTB access violations
system.cpu.itb.data_accesses                        0                       # DTB accesses
system.cpu.workload.numSyscalls                    11                       # Number of system calls
system.cpu.pwrStateResidencyTicks::ON       383438000                       # Cumulative time (in ticks) in various power states
system.cpu.numCycles                           766876                       # number of cpu cycles simulated
system.cpu.numWorkItemsStarted                      0                       # number of work items this cpu started
system.cpu.numWorkItemsCompleted                    0                       # number of work items this cpu completed
system.cpu.committedInsts                        5277                       # Number of instructions committed
system.cpu.committedOps                          5277                       # Number of ops (including micro ops) committed
system.cpu.num_int_alu_accesses                  4964                       # Number of integer alu accesses
system.cpu.num_fp_alu_accesses                     45                       # Number of float alu accesses
system.cpu.num_vec_alu_accesses                     0                       # Number of vector alu accesses
system.cpu.num_func_calls                         211                       # number of times a function call or return occured
system.cpu.num_conditional_control_insts          682                       # number of instructions that are conditional controls
system.cpu.num_int_insts                         4964                       # number of integer instructions
system.cpu.num_fp_insts                            45                       # number of float instructions
system.cpu.num_vec_insts                            0                       # number of vector instructions
system.cpu.num_int_register_reads                6664                       # number of times the integer registers were read
system.cpu.num_int_register_writes               3284                       # number of times the integer registers were written
system.cpu.num_fp_register_reads                   33                       # number of times the floating registers were read
system.cpu.num_fp_register_writes                  22                       # number of times the floating registers were written
system.cpu.num_vec_register_reads                   0                       # number of times the vector registers were read
system.cpu.num_vec_register_writes                  0                       # number of times the vector registers were written
system.cpu.num_mem_refs                          1857                       # number of memory refs
system.cpu.num_load_insts                         967                       # Number of load instructions
system.cpu.num_store_insts                        890                       # Number of store instructions
system.cpu.num_idle_cycles                          0                       # Number of idle cycles
system.cpu.num_busy_cycles                     766876                       # Number of busy cycles
system.cpu.not_idle_fraction                        1                       # Percentage of non-idle cycles
system.cpu.idle_fraction                            0                       # Percentage of idle cycles
system.cpu.Branches                               979                       # Number of branches fetched
system.cpu.op_class::No_OpClass                   206      3.89%      3.89% # Class of executed instruction
system.cpu.op_class::IntAlu                      3188     60.28%     64.17% # Class of executed instruction
system.cpu.op_class::IntMult                        3      0.06%     64.23% # Class of executed instruction
system.cpu.op_class::IntDiv                         0      0.00%     64.23% # Class of executed instruction
system.cpu.op_class::FloatAdd                      12      0.23%     64.45% # Class of executed instruction
system.cpu.op_class::FloatCmp                       0      0.00%     64.45% # Class of executed instruction
system.cpu.op_class::FloatCvt                       8      0.15%     64.61% # Class of executed instruction
system.cpu.op_class::FloatMult                      0      0.00%     64.61% # Class of executed instruction
system.cpu.op_class::FloatMultAcc                   0      0.00%     64.61% # Class of executed instruction
system.cpu.op_class::FloatDiv                       2      0.04%     64.64% # Class of executed instruction
system.cpu.op_class::FloatMisc                      0      0.00%     64.64% # Class of executed instruction
system.cpu.op_class::FloatSqrt                      0      0.00%     64.64% # Class of executed instruction
system.cpu.op_class::SimdAdd                        0      0.00%     64.64% # Class of executed instruction
system.cpu.op_class::SimdAddAcc                     0      0.00%     64.64% # Class of executed instruction
system.cpu.op_class::SimdAlu                        0      0.00%     64.64% # Class of executed instruction
system.cpu.op_class::SimdCmp                        0      0.00%     64.64% # Class of executed instruction
system.cpu.op_class::SimdCvt                        0      0.00%     64.64% # Class of executed instruction
system.cpu.op_class::SimdMisc                       0      0.00%     64.64% # Class of executed instruction
system.cpu.op_class::SimdMult                       0      0.00%     64.64% # Class of executed instruction
system.cpu.op_class::SimdMultAcc                    0      0.00%     64.64% # Class of executed instruction
system.cpu.op_class::SimdShift                      0      0.00%     64.64% # Class of executed instruction
system.cpu.op_class::SimdShiftAcc                   0      0.00%     64.64% # Class of executed instruction
system.cpu.op_class::SimdSqrt                       0      0.00%     64.64% # Class of executed instruction
system.cpu.op_class::SimdFloatAdd                   0      0.00%     64.64% # Class of executed instruction
system.cpu.op_class::SimdFloatAlu                   0      0.00%     64.64% # Class of executed instruction
system.cpu.op_class::SimdFloatCmp                   0      0.00%     64.64% # Class of executed instruction
system.cpu.op_class::SimdFloatCvt                   0      0.00%     64.64% # Class of executed instruction
system.cpu.op_class::SimdFloatDiv                   0      0.00%     64.64% # Class of executed instruction
system.cpu.op_class::SimdFloatMisc                  0      0.00%     64.64% # Class of executed instruction
system.cpu.op_class::SimdFloatMult                  0      0.00%     64.64% # Class of executed instruction
system.cpu.op_class::SimdFloatMultAcc               0      0.00%     64.64% # Class of executed instruction
system.cpu.op_class::SimdFloatSqrt                  0      0.00%     64.64% # Class of executed instruction
system.cpu.op_class::SimdAes                        0      0.00%     64.64% # Class of executed instruction
system.cpu.op_class::SimdAesMix                     0      0.00%     64.64% # Class of executed instruction
system.cpu.op_class::SimdSha1Hash                   0      0.00%     64.64% # Class of executed instruction
system.cpu.op_class::SimdSha1Hash2                  0      0.00%     64.64% # Class of executed instruction
system.cpu.op_class::SimdSha256Hash                 0      0.00%     64.64% # Class of executed instruction
system.cpu.op_class::SimdSha256Hash2                0      0.00%     64.64% # Class of executed instruction
system.cpu.op_class::SimdShaSigma2                  0      0.00%     64.64% # Class of executed instruction
system.cpu.op_class::SimdShaSigma3                  0      0.00%     64.64% # Class of executed instruction
system.cpu.op_class::MemRead                      973     18.40%     83.04% # Class of executed instruction
system.cpu.op_class::MemWrite                     874     16.52%     99.57% # Class of executed instruction
system.cpu.op_class::FloatMemRead                   6      0.11%     99.68% # Class of executed instruction
system.cpu.op_class::FloatMemWrite                 17      0.32%    100.00% # Class of executed instruction
system.cpu.op_class::IprAccess                      0      0.00%    100.00% # Class of executed instruction
system.cpu.op_class::InstPrefetch                   0      0.00%    100.00% # Class of executed instruction
system.cpu.op_class::total                       5289                       # Class of executed instruction
system.membus.snoop_filter.tot_requests             0                       # Total number of requests made to the snoop filter.
system.membus.snoop_filter.hit_single_requests            0                       # Number of requests hitting in the snoop filter with a single holder of the requested data.
system.membus.snoop_filter.hit_multi_requests            0                       # Number of requests hitting in the snoop filter with multiple (>1) holders of the requested data.
system.membus.snoop_filter.tot_snoops               0                       # Total number of snoops made to the snoop filter.
system.membus.snoop_filter.hit_single_snoops            0                       # Number of snoops hitting in the snoop filter with a single holder of the requested data.
system.membus.snoop_filter.hit_multi_snoops            0                       # Number of snoops hitting in the snoop filter with multiple (>1) holders of the requested data.
system.membus.pwrStateResidencyTicks::UNDEFINED    383438000                       # Cumulative time (in ticks) in various power states
system.membus.trans_dist::ReadReq                6238                       # Transaction distribution
system.membus.trans_dist::ReadResp               6249                       # Transaction distribution
system.membus.trans_dist::WriteReq                873                       # Transaction distribution
system.membus.trans_dist::WriteResp               873                       # Transaction distribution
system.membus.trans_dist::LoadLockedReq            12                       # Transaction distribution
system.membus.trans_dist::StoreCondReq             12                       # Transaction distribution
system.membus.trans_dist::StoreCondResp            12                       # Transaction distribution
system.membus.pkt_count_system.cpu.icache_port::system.mem_ctrls.port        10579                       # Packet count per connected master and slave (bytes)
system.membus.pkt_count_system.cpu.dcache_port::system.mem_ctrls.port         3690                       # Packet count per connected master and slave (bytes)
system.membus.pkt_count::total                  14269                       # Packet count per connected master and slave (bytes)
system.membus.pkt_size_system.cpu.icache_port::system.mem_ctrls.port        21156                       # Cumulative packet size per connected master and slave (bytes)
system.membus.pkt_size_system.cpu.dcache_port::system.mem_ctrls.port        13493                       # Cumulative packet size per connected master and slave (bytes)
system.membus.pkt_size::total                   34649                       # Cumulative packet size per connected master and slave (bytes)
system.membus.snoops                                0                       # Total snoops (count)
system.membus.snoopTraffic                          0                       # Total snoop traffic (bytes)
system.membus.snoop_fanout::samples              7135                       # Request fanout histogram
system.membus.snoop_fanout::mean                    0                       # Request fanout histogram
system.membus.snoop_fanout::stdev                   0                       # Request fanout histogram
system.membus.snoop_fanout::underflows              0      0.00%      0.00% # Request fanout histogram
system.membus.snoop_fanout::0                    7135    100.00%    100.00% # Request fanout histogram
system.membus.snoop_fanout::1                       0      0.00%    100.00% # Request fanout histogram
system.membus.snoop_fanout::overflows               0      0.00%    100.00% # Request fanout histogram
system.membus.snoop_fanout::min_value               0                       # Request fanout histogram
system.membus.snoop_fanout::max_value               0                       # Request fanout histogram
system.membus.snoop_fanout::total                7135                       # Request fanout histogram
system.membus.reqLayer0.occupancy             8020000                       # Layer occupancy (ticks)
system.membus.reqLayer0.utilization               2.1                       # Layer utilization (%)
system.membus.respLayer1.occupancy           12011250                       # Layer occupancy (ticks)
system.membus.respLayer1.utilization              3.1                       # Layer utilization (%)
system.membus.respLayer2.occupancy            3073000                       # Layer occupancy (ticks)
system.membus.respLayer2.utilization              0.8                       # Layer utilization (%)

---------- End Simulation Statistics   ----------
